<?xml version="1.0" encoding="UTF-8"?>

<!-- generated on 2022-10-05 11:33:25 by Eclipse SUMO netconvert Version 1.14.1
<configuration xmlns:xsi="http://www.w3.org/2001/XMLSchema-instance" xsi:noNamespaceSchemaLocation="http://sumo.dlr.de/xsd/netconvertConfiguration.xsd">

    <input>
        <osm-files value="minimap.osm"/>
    </input>

    <output>
        <output-file value="minimap.net.xml"/>
    </output>

    <projection>
        <proj.utm value="true"/>
    </projection>

</configuration>
-->

<net version="1.9" junctionCornerDetail="5" limitTurnSpeed="5.50" xmlns:xsi="http://www.w3.org/2001/XMLSchema-instance" xsi:noNamespaceSchemaLocation="http://sumo.dlr.de/xsd/net_file.xsd">

    <location netOffset="-295332.83,-5703864.38" convBoundary="0.00,0.00,843.83,1467.84" origBoundary="6.054175,51.449133,6.066450,51.462223" projParameter="+proj=utm +zone=32 +ellps=WGS84 +datum=WGS84 +units=m +no_defs"/>

    <type id="highway.bridleway" priority="1" numLanes="1" speed="2.78" allow="pedestrian" oneway="1" width="2.00"/>
    <type id="highway.bus_guideway" priority="1" numLanes="1" speed="27.78" allow="bus" oneway="1"/>
    <type id="highway.cycleway" priority="1" numLanes="1" speed="5.56" allow="bicycle" oneway="0" width="1.00"/>
    <type id="highway.footway" priority="1" numLanes="1" speed="2.78" allow="pedestrian" oneway="1" width="2.00"/>
    <type id="highway.ford" priority="1" numLanes="1" speed="2.78" allow="army" oneway="0"/>
    <type id="highway.living_street" priority="2" numLanes="1" speed="2.78" disallow="tram rail_urban rail rail_electric rail_fast ship" oneway="0"/>
    <type id="highway.motorway" priority="14" numLanes="2" speed="39.44" allow="private emergency authority army vip passenger hov taxi bus coach delivery truck trailer motorcycle evehicle custom1 custom2" oneway="1"/>
    <type id="highway.motorway_link" priority="9" numLanes="1" speed="22.22" allow="private emergency authority army vip passenger hov taxi bus coach delivery truck trailer motorcycle evehicle custom1 custom2" oneway="1"/>
    <type id="highway.path" priority="1" numLanes="1" speed="5.56" allow="pedestrian bicycle" oneway="0" width="2.00"/>
    <type id="highway.pedestrian" priority="1" numLanes="1" speed="2.78" allow="pedestrian" oneway="1" width="2.00"/>
    <type id="highway.primary" priority="12" numLanes="2" speed="27.78" disallow="tram rail_urban rail rail_electric rail_fast ship" oneway="0"/>
    <type id="highway.primary_link" priority="7" numLanes="1" speed="22.22" disallow="tram rail_urban rail rail_electric rail_fast ship" oneway="0"/>
    <type id="highway.raceway" priority="15" numLanes="2" speed="83.33" allow="vip" oneway="0"/>
    <type id="highway.residential" priority="3" numLanes="1" speed="13.89" disallow="tram rail_urban rail rail_electric rail_fast ship" oneway="0"/>
    <type id="highway.secondary" priority="11" numLanes="1" speed="27.78" disallow="tram rail_urban rail rail_electric rail_fast ship" oneway="0"/>
    <type id="highway.secondary_link" priority="6" numLanes="1" speed="22.22" disallow="tram rail_urban rail rail_electric rail_fast ship" oneway="0"/>
    <type id="highway.service" priority="1" numLanes="1" speed="5.56" allow="pedestrian delivery bicycle" oneway="0"/>
    <type id="highway.stairs" priority="1" numLanes="1" speed="1.39" allow="pedestrian" oneway="1" width="2.00"/>
    <type id="highway.step" priority="1" numLanes="1" speed="1.39" allow="pedestrian" oneway="1" width="2.00"/>
    <type id="highway.steps" priority="1" numLanes="1" speed="1.39" allow="pedestrian" oneway="1" width="2.00"/>
    <type id="highway.tertiary" priority="10" numLanes="1" speed="22.22" disallow="tram rail_urban rail rail_electric rail_fast ship" oneway="0"/>
    <type id="highway.tertiary_link" priority="5" numLanes="1" speed="22.22" disallow="tram rail_urban rail rail_electric rail_fast ship" oneway="0"/>
    <type id="highway.track" priority="1" numLanes="1" speed="5.56" allow="pedestrian motorcycle moped bicycle" oneway="0"/>
    <type id="highway.trunk" priority="13" numLanes="2" speed="27.78" disallow="pedestrian bicycle tram rail_urban rail rail_electric rail_fast ship" oneway="0"/>
    <type id="highway.trunk_link" priority="8" numLanes="1" speed="22.22" disallow="pedestrian bicycle tram rail_urban rail rail_electric rail_fast ship" oneway="0"/>
    <type id="highway.unclassified" priority="4" numLanes="1" speed="13.89" disallow="tram rail_urban rail rail_electric rail_fast ship" oneway="0"/>
    <type id="highway.unsurfaced" priority="1" numLanes="1" speed="8.33" disallow="tram rail_urban rail rail_electric rail_fast ship" oneway="0"/>
    <type id="railway.highspeed" priority="21" numLanes="1" speed="69.44" allow="rail_fast" oneway="1"/>
    <type id="railway.light_rail" priority="19" numLanes="1" speed="27.78" allow="rail_urban" oneway="1"/>
    <type id="railway.preserved" priority="16" numLanes="1" speed="27.78" allow="rail" oneway="1"/>
    <type id="railway.rail" priority="20" numLanes="1" speed="44.44" allow="rail" oneway="1"/>
    <type id="railway.subway" priority="18" numLanes="1" speed="27.78" allow="rail_urban" oneway="1"/>
    <type id="railway.tram" priority="17" numLanes="1" speed="13.89" allow="tram" oneway="1"/>

    <edge id=":1238397739_0" function="internal">
        <lane id=":1238397739_0_0" index="0" disallow="tram rail_urban rail rail_electric rail_fast ship" speed="13.89" length="5.01" shape="163.58,734.72 161.51,739.28"/>
    </edge>
    <edge id=":1238397739_1" function="internal">
        <lane id=":1238397739_1_0" index="0" disallow="tram rail_urban rail rail_electric rail_fast ship" speed="13.89" length="4.97" shape="158.61,737.94 160.66,733.41"/>
    </edge>
    <edge id=":1238397763_0" function="internal">
        <lane id=":1238397763_0_0" index="0" disallow="tram rail_urban rail rail_electric rail_fast ship" speed="8.33" length="6.92" shape="221.34,750.14 220.21,748.78 219.40,747.29 218.91,745.67 218.75,743.91"/>
    </edge>
    <edge id=":1238397763_1" function="internal">
        <lane id=":1238397763_1_0" index="0" disallow="tram rail_urban rail rail_electric rail_fast ship" speed="7.11" length="4.40" shape="221.95,743.91 222.05,745.03 222.36,746.06 222.88,747.01 223.60,747.87"/>
    </edge>
    <edge id=":1238397764_0" function="internal">
        <lane id=":1238397764_0_0" index="0" disallow="tram rail_urban rail rail_electric rail_fast ship" speed="3.65" length="4.67" shape="561.28,125.81 559.93,126.33 559.05,126.19 558.62,125.41 558.66,123.97"/>
    </edge>
    <edge id=":1238397831_0" function="internal">
        <lane id=":1238397831_0_0" index="0" disallow="tram rail_urban rail rail_electric rail_fast ship" speed="4.60" length="1.95" shape="235.60,746.22 234.12,747.50"/>
    </edge>
    <edge id=":1238397831_1" function="internal">
        <lane id=":1238397831_1_0" index="0" disallow="tram rail_urban rail rail_electric rail_fast ship" speed="4.57" length="1.92" shape="231.40,745.82 232.59,747.32"/>
    </edge>
    <edge id=":1244740448_0" function="internal">
        <lane id=":1244740448_0_0" index="0" disallow="tram rail_urban rail rail_electric rail_fast ship" speed="8.33" length="14.02" shape="672.83,409.46 670.57,395.62"/>
    </edge>
    <edge id=":1244740448_1" function="internal">
        <lane id=":1244740448_1_0" index="0" disallow="tram rail_urban rail rail_electric rail_fast ship" speed="8.05" length="14.00" shape="672.83,409.46 672.85,405.65 674.09,402.72 676.53,400.67 680.17,399.50"/>
    </edge>
    <edge id=":1244740448_2" function="internal">
        <lane id=":1244740448_2_0" index="0" disallow="tram rail_urban rail rail_electric rail_fast ship" speed="3.65" length="4.67" shape="672.83,409.46 673.46,408.16 674.20,407.66 675.04,407.94 676.00,409.03"/>
    </edge>
    <edge id=":1244740448_3" function="internal">
        <lane id=":1244740448_3_0" index="0" disallow="tram rail_urban rail rail_electric rail_fast ship" speed="6.57" length="8.97" shape="680.72,402.66 678.38,403.41 676.81,404.72 676.02,406.59 676.00,409.03"/>
    </edge>
    <edge id=":1244740448_4" function="internal">
        <lane id=":1244740448_4_0" index="0" disallow="tram rail_urban rail rail_electric rail_fast ship" speed="8.00" length="14.02" shape="680.72,402.66 676.88,402.77 673.92,401.63 671.81,399.25 670.57,395.62"/>
    </edge>
    <edge id=":1244740448_5" function="internal">
        <lane id=":1244740448_5_0" index="0" disallow="tram rail_urban rail rail_electric rail_fast ship" speed="3.65" length="4.67" shape="680.72,402.66 679.40,402.07 678.87,401.35 679.13,400.49 680.17,399.50"/>
    </edge>
    <edge id=":1244740448_6" function="internal">
        <lane id=":1244740448_6_0" index="0" disallow="tram rail_urban rail rail_electric rail_fast ship" speed="6.51" length="8.92" shape="673.72,395.03 674.51,397.34 675.84,398.85 677.73,399.57 680.17,399.50"/>
    </edge>
    <edge id=":1244740448_7" function="internal">
        <lane id=":1244740448_7_0" index="0" disallow="tram rail_urban rail rail_electric rail_fast ship" speed="8.33" length="14.18" shape="673.72,395.03 676.00,409.03"/>
    </edge>
    <edge id=":1244740448_8" function="internal">
        <lane id=":1244740448_8_0" index="0" disallow="tram rail_urban rail rail_electric rail_fast ship" speed="3.65" length="4.67" shape="673.72,395.03 673.16,396.36 672.44,396.90 671.58,396.65 670.57,395.62"/>
    </edge>
    <edge id=":1307948451_0" function="internal">
        <lane id=":1307948451_0_0" index="0" allow="pedestrian delivery bicycle" speed="5.56" length="9.42" shape="142.12,291.89 140.18,301.11"/>
    </edge>
    <edge id=":1307948451_1" function="internal">
        <lane id=":1307948451_1_0" index="0" allow="pedestrian delivery bicycle" speed="5.56" length="10.26" shape="142.12,291.89 141.16,294.54 139.59,296.23 137.40,296.96 134.59,296.73"/>
    </edge>
    <edge id=":1307948451_2" function="internal">
        <lane id=":1307948451_2_0" index="0" allow="pedestrian delivery bicycle" speed="3.65" length="4.67" shape="142.12,291.89 141.10,292.91 140.23,293.13 139.53,292.58 138.99,291.24"/>
    </edge>
    <edge id=":1307948451_3" function="internal">
        <lane id=":1307948451_3_0" index="0" allow="pedestrian delivery bicycle" speed="5.02" length="5.02" shape="135.30,293.61 136.68,293.72 137.75,293.37 138.52,292.54 138.99,291.24"/>
    </edge>
    <edge id=":1307948451_4" function="internal">
        <lane id=":1307948451_4_0" index="0" allow="pedestrian delivery bicycle" speed="5.56" length="10.18" shape="135.30,293.61 137.92,294.61 139.61,296.19 140.36,298.36 140.18,301.11"/>
    </edge>
    <edge id=":1307948451_5" function="internal">
        <lane id=":1307948451_5_0" index="0" allow="pedestrian delivery bicycle" speed="3.65" length="4.67" shape="135.30,293.61 136.29,294.66 136.50,295.53 135.93,296.22 134.59,296.73"/>
    </edge>
    <edge id=":1307948451_6" function="internal">
        <lane id=":1307948451_6_0" index="0" allow="pedestrian delivery bicycle" speed="5.10" length="5.07" shape="137.05,300.45 137.14,299.09 136.76,298.01 135.91,297.23 134.59,296.73"/>
    </edge>
    <edge id=":1307948451_7" function="internal">
        <lane id=":1307948451_7_0" index="0" allow="pedestrian delivery bicycle" speed="5.56" length="9.41" shape="137.05,300.45 138.99,291.24"/>
    </edge>
    <edge id=":1307948451_8" function="internal">
        <lane id=":1307948451_8_0" index="0" allow="pedestrian delivery bicycle" speed="3.65" length="4.67" shape="137.05,300.45 138.09,299.44 138.95,299.22 139.65,299.77 140.18,301.11"/>
    </edge>
    <edge id=":1633171941_0" function="internal">
        <lane id=":1633171941_0_0" index="0" allow="bicycle" speed="5.56" length="4.48" width="1.00" shape="726.02,441.30 725.19,442.34 724.68,443.10 724.30,443.93 723.84,445.17"/>
    </edge>
    <edge id=":1633171941_1" function="internal">
        <lane id=":1633171941_1_0" index="0" allow="bicycle" speed="2.04" length="0.73" width="1.00" shape="726.02,441.30 725.59,441.44 725.31,441.37"/>
    </edge>
    <edge id=":1633171941_4" function="internal">
        <lane id=":1633171941_4_0" index="0" allow="bicycle" speed="2.04" length="0.73" width="1.00" shape="725.31,441.37 725.20,441.12 725.24,440.67"/>
    </edge>
    <edge id=":1633171941_2" function="internal">
        <lane id=":1633171941_2_0" index="0" allow="bicycle" speed="5.56" length="4.83" width="1.00" shape="722.90,444.84 723.39,443.50 723.80,442.60 724.35,441.78 725.24,440.67"/>
    </edge>
    <edge id=":1633171941_3" function="internal">
        <lane id=":1633171941_3_0" index="0" allow="bicycle" speed="2.04" length="0.73" width="1.00" shape="722.90,444.84 723.26,444.57 723.54,444.54"/>
    </edge>
    <edge id=":1633171941_5" function="internal">
        <lane id=":1633171941_5_0" index="0" allow="bicycle" speed="2.04" length="0.73" width="1.00" shape="723.54,444.54 723.73,444.74 723.84,445.17"/>
    </edge>
    <edge id=":1633171980_0" function="internal">
        <lane id=":1633171980_0_0" index="0" allow="pedestrian bicycle" speed="2.89" length="2.92" width="2.00" shape="726.43,472.22 726.64,471.34 727.02,470.93 727.57,470.99 728.30,471.52"/>
    </edge>
    <edge id=":1633171988_0" function="internal">
        <lane id=":1633171988_0_0" index="0" allow="bicycle" speed="5.56" length="6.89" width="1.00" shape="718.12,473.43 717.41,480.29"/>
    </edge>
    <edge id=":1633171988_1" function="internal">
        <lane id=":1633171988_1_0" index="0" allow="bicycle" speed="5.35" length="6.57" width="1.00" shape="718.12,473.43 717.63,475.58 716.84,477.04 715.76,477.83 714.40,477.93"/>
    </edge>
    <edge id=":1633171988_2" function="internal">
        <lane id=":1633171988_2_0" index="0" allow="bicycle" speed="2.04" length="1.46" width="1.00" shape="718.12,473.43 717.82,473.77 717.55,473.86 717.32,473.70 717.13,473.29"/>
    </edge>
    <edge id=":1633171988_3" function="internal">
        <lane id=":1633171988_3_0" index="0" allow="bicycle" speed="4.01" length="3.22" width="1.00" shape="714.87,474.97 715.75,474.98 716.42,474.71 716.88,474.14 717.13,473.29"/>
    </edge>
    <edge id=":1633171988_4" function="internal">
        <lane id=":1633171988_4_0" index="0" allow="bicycle" speed="5.33" length="5.69" width="1.00" shape="714.71,475.95 715.99,476.40 716.86,477.27 717.34,478.57 717.41,480.29"/>
    </edge>
    <edge id=":1633171988_5" function="internal">
        <lane id=":1633171988_5_0" index="0" allow="pedestrian bicycle" speed="2.89" length="2.92" width="2.00" shape="714.79,475.46 715.45,476.07 715.62,476.60 715.29,477.06 714.48,477.44"/>
    </edge>
    <edge id=":1633171988_6" function="internal">
        <lane id=":1633171988_6_0" index="0" allow="bicycle" speed="4.10" length="3.41" width="1.00" shape="716.41,480.22 716.34,479.35 715.97,478.67 715.33,478.20 714.40,477.93"/>
    </edge>
    <edge id=":1633171988_7" function="internal">
        <lane id=":1633171988_7_0" index="0" allow="bicycle" speed="5.56" length="6.97" width="1.00" shape="716.41,480.22 717.13,473.29"/>
    </edge>
    <edge id=":1633171988_8" function="internal">
        <lane id=":1633171988_8_0" index="0" allow="bicycle" speed="2.04" length="1.46" width="1.00" shape="716.41,480.22 716.69,479.86 716.95,479.76 717.19,479.90 717.41,480.29"/>
    </edge>
    <edge id=":1633172076_0" function="internal">
        <lane id=":1633172076_0_0" index="0" allow="pedestrian bicycle" speed="5.56" length="7.80" width="2.00" shape="660.65,694.43 658.93,695.94 657.30,696.60 655.87,697.36 654.78,699.20"/>
    </edge>
    <edge id=":1633172076_1" function="internal">
        <lane id=":1633172076_1_0" index="0" allow="pedestrian bicycle" speed="5.56" length="19.43" width="2.00" shape="660.65,694.43 656.29,699.46 653.97,700.46 653.66,697.45 655.39,690.43"/>
    </edge>
    <edge id=":1633172076_2" function="internal">
        <lane id=":1633172076_2_0" index="0" allow="pedestrian bicycle" speed="2.95" length="3.11" width="2.00" shape="660.65,694.43 659.69,694.42 659.18,694.11 659.11,693.52 659.50,692.64"/>
    </edge>
    <edge id=":1633172076_3" function="internal">
        <lane id=":1633172076_3_0" index="0" allow="pedestrian bicycle" speed="4.51" length="8.06" width="2.00" shape="657.30,691.01 656.59,693.92 656.72,695.16 657.69,694.73 659.50,692.64"/>
    </edge>
    <edge id=":1633172076_4" function="internal">
        <lane id=":1633172076_4_0" index="0" allow="pedestrian bicycle" speed="5.56" length="8.57" width="2.00" shape="657.30,691.01 654.78,699.20"/>
    </edge>
    <edge id=":1633172076_5" function="internal">
        <lane id=":1633172076_5_0" index="0" allow="pedestrian bicycle" speed="2.89" length="2.92" width="2.00" shape="657.30,691.01 656.60,691.58 656.05,691.68 655.65,691.29 655.39,690.43"/>
    </edge>
    <edge id=":1633172076_6" function="internal">
        <lane id=":1633172076_6_0" index="0" allow="pedestrian bicycle" speed="5.56" length="8.52" width="2.00" shape="652.88,698.57 655.39,690.43"/>
    </edge>
    <edge id=":1633172076_7" function="internal">
        <lane id=":1633172076_7_0" index="0" allow="pedestrian bicycle" speed="5.56" length="9.12" width="2.00" shape="652.88,698.57 654.12,696.36 655.70,695.35 657.52,694.47 659.50,692.64"/>
    </edge>
    <edge id=":1633172076_8" function="internal">
        <lane id=":1633172076_8_0" index="0" allow="pedestrian bicycle" speed="2.89" length="2.92" width="2.00" shape="652.88,698.57 653.59,698.02 654.14,697.94 654.54,698.33 654.78,699.20"/>
    </edge>
    <edge id=":1633180171_0" function="internal">
        <lane id=":1633180171_0_0" index="0" disallow="tram rail_urban rail rail_electric rail_fast ship" speed="8.33" length="4.94" shape="678.27,444.77 677.94,449.70"/>
    </edge>
    <edge id=":1633180171_1" function="internal">
        <lane id=":1633180171_1_0" index="0" disallow="tram rail_urban rail rail_electric rail_fast ship" speed="8.33" length="4.76" shape="674.76,449.37 675.07,444.62"/>
    </edge>
    <edge id=":1633180173_0" function="internal">
        <lane id=":1633180173_0_0" index="0" disallow="tram rail_urban rail rail_electric rail_fast ship" speed="8.33" length="3.85" shape="547.65,463.55 546.78,462.79 546.21,462.18 545.58,461.74 544.52,461.46"/>
    </edge>
    <edge id=":1633180173_1" function="internal">
        <lane id=":1633180173_1_0" index="0" disallow="tram rail_urban rail rail_electric rail_fast ship" speed="8.33" length="5.43" shape="544.95,458.29 546.47,458.64 547.43,459.17 548.29,459.94 549.54,460.97"/>
    </edge>
    <edge id=":1633180244_0" function="internal">
        <lane id=":1633180244_0_0" index="0" disallow="tram rail_urban rail rail_electric rail_fast ship" speed="8.33" length="5.22" shape="519.67,574.65 515.76,578.11"/>
    </edge>
    <edge id=":1633180244_1" function="internal">
        <lane id=":1633180244_1_0" index="0" disallow="tram rail_urban rail rail_electric rail_fast ship" speed="8.33" length="5.07" shape="513.69,575.67 517.49,572.31"/>
    </edge>
    <edge id=":1672294622_0" function="internal">
        <lane id=":1672294622_0_0" index="0" disallow="tram rail_urban rail rail_electric rail_fast ship" speed="3.65" length="4.67" shape="173.33,59.63 174.77,59.73 175.51,60.23 175.55,61.13 174.91,62.41"/>
    </edge>
    <edge id=":1708236156_0" function="internal">
        <lane id=":1708236156_0_0" index="0" allow="pedestrian delivery bicycle" speed="5.56" length="2.02" shape="102.78,301.06 102.39,303.04"/>
    </edge>
    <edge id=":1708236156_1" function="internal">
        <lane id=":1708236156_1_0" index="0" allow="pedestrian delivery bicycle" speed="5.56" length="0.10" shape="99.27,302.31 99.29,302.26"/>
    </edge>
    <edge id=":1747993301_0" function="internal">
        <lane id=":1747993301_0_0" index="0" allow="pedestrian delivery bicycle" speed="4.77" length="5.04" shape="171.64,634.90 171.42,633.56 170.78,632.70 169.72,632.33 168.23,632.45"/>
    </edge>
    <edge id=":1747993301_1" function="internal">
        <lane id=":1747993301_1_0" index="0" disallow="tram rail_urban rail rail_electric rail_fast ship" speed="13.89" length="9.46" shape="171.64,634.90 171.61,632.09 171.51,630.17 171.24,628.27 170.71,625.51"/>
    </edge>
    <edge id=":1747993301_2" function="internal">
        <lane id=":1747993301_2_0" index="0" disallow="tram rail_urban rail rail_electric rail_fast ship" speed="13.89" length="9.43" shape="173.85,624.89 175.69,634.14"/>
    </edge>
    <edge id=":1747993301_3" function="internal">
        <lane id=":1747993301_3_0" index="0" allow="pedestrian delivery bicycle" speed="7.06" length="3.16" shape="173.85,624.89 173.95,627.66 173.80,628.02"/>
    </edge>
    <edge id=":1747993301_7" function="internal">
        <lane id=":1747993301_7_0" index="0" allow="pedestrian delivery bicycle" speed="7.06" length="7.54" shape="173.80,628.02 173.05,629.84 171.14,631.44 168.23,632.45"/>
    </edge>
    <edge id=":1747993301_4" function="internal">
        <lane id=":1747993301_4_0" index="0" allow="pedestrian delivery bicycle" speed="5.30" length="5.59" shape="167.57,629.31 169.17,628.78 170.23,627.97 170.74,626.88 170.71,625.51"/>
    </edge>
    <edge id=":1747993301_5" function="internal">
        <lane id=":1747993301_5_0" index="0" allow="pedestrian delivery bicycle" speed="7.03" length="10.78" shape="167.57,629.31 170.65,629.08 173.03,629.80 174.71,631.49 175.69,634.14"/>
    </edge>
    <edge id=":1747993301_6" function="internal">
        <lane id=":1747993301_6_0" index="0" allow="pedestrian delivery bicycle" speed="3.65" length="4.67" shape="167.57,629.31 168.91,629.85 169.47,630.55 169.24,631.42 168.23,632.45"/>
    </edge>
    <edge id=":2044433527_0" function="internal">
        <lane id=":2044433527_0_0" index="0" allow="pedestrian bicycle" speed="4.10" length="3.44" width="2.00" shape="106.02,301.02 105.13,300.76 104.12,300.49 103.26,300.44 102.82,300.87"/>
    </edge>
    <edge id=":2044433527_1" function="internal">
        <lane id=":2044433527_1_0" index="0" allow="pedestrian bicycle" speed="5.56" length="8.78" width="2.00" shape="106.02,301.02 103.35,300.13 101.55,298.89 100.61,297.30 100.53,295.37"/>
    </edge>
    <edge id=":2044433527_2" function="internal">
        <lane id=":2044433527_2_0" index="0" allow="pedestrian bicycle" speed="2.89" length="2.92" width="2.00" shape="106.02,301.02 105.42,300.34 105.31,299.80 105.69,299.38 106.54,299.09"/>
    </edge>
    <edge id=":2044433527_3" function="internal">
        <lane id=":2044433527_3_0" index="0" allow="pedestrian bicycle" speed="5.05" length="4.79" width="2.00" shape="103.69,295.90 103.71,297.01 104.20,297.91 105.14,298.61 106.54,299.09"/>
    </edge>
    <edge id=":2044433527_4" function="internal">
        <lane id=":2044433527_4_0" index="0" allow="pedestrian delivery bicycle" speed="5.56" length="5.04" shape="103.69,295.90 102.82,300.87"/>
    </edge>
    <edge id=":2044433527_5" function="internal">
        <lane id=":2044433527_5_0" index="0" allow="pedestrian delivery bicycle" speed="3.65" length="4.67" shape="103.69,295.90 102.70,296.95 101.84,297.21 101.12,296.69 100.53,295.37"/>
    </edge>
    <edge id=":2044433527_6" function="internal">
        <lane id=":2044433527_6_0" index="0" allow="pedestrian delivery bicycle" speed="5.56" length="6.89" shape="99.31,302.14 100.53,295.37"/>
    </edge>
    <edge id=":2044433527_7" function="internal">
        <lane id=":2044433527_7_0" index="0" allow="pedestrian bicycle" speed="5.56" length="8.94" width="2.00" shape="99.31,302.14 100.09,300.25 101.56,299.11 103.71,298.73 106.54,299.09"/>
    </edge>
    <edge id=":2044433527_8" function="internal">
        <lane id=":2044433527_8_0" index="0" allow="pedestrian delivery bicycle" speed="3.85" length="5.46" shape="99.31,302.14 99.71,300.51 100.42,299.75 101.46,299.87 102.82,300.87"/>
    </edge>
    <edge id=":2044433544_0" function="internal">
        <lane id=":2044433544_0_0" index="0" allow="pedestrian bicycle" speed="4.69" length="4.56" width="2.00" shape="141.47,309.30 140.11,309.15 139.05,309.39 138.30,310.02 137.85,311.05"/>
    </edge>
    <edge id=":2044433544_1" function="internal">
        <lane id=":2044433544_1_0" index="0" allow="pedestrian bicycle" speed="5.56" length="9.42" width="2.00" shape="141.47,309.30 132.30,307.16"/>
    </edge>
    <edge id=":2044433544_2" function="internal">
        <lane id=":2044433544_2_0" index="0" allow="pedestrian bicycle" speed="5.56" length="8.78" width="2.00" shape="141.47,309.30 138.85,308.40 137.12,307.12 136.30,305.48 136.38,303.46"/>
    </edge>
    <edge id=":2044433544_3" function="internal">
        <lane id=":2044433544_3_0" index="0" allow="pedestrian bicycle" speed="2.89" length="2.92" width="2.00" shape="141.47,309.30 140.86,308.65 140.73,308.10 141.08,307.67 141.93,307.36"/>
    </edge>
    <edge id=":2044433544_4" function="internal">
        <lane id=":2044433544_4_0" index="0" allow="pedestrian bicycle" speed="4.83" length="4.53" width="2.00" shape="139.49,304.21 139.42,305.32 139.81,306.22 140.64,306.89 141.93,307.36"/>
    </edge>
    <edge id=":2044433544_5" function="internal">
        <lane id=":2044433544_5_0" index="0" allow="pedestrian delivery bicycle" speed="5.56" length="7.03" shape="139.49,304.21 137.85,311.05"/>
    </edge>
    <edge id=":2044433544_6" function="internal">
        <lane id=":2044433544_6_0" index="0" allow="pedestrian bicycle" speed="5.56" length="8.78" width="2.00" shape="139.49,304.21 138.65,306.04 137.17,307.14 135.05,307.51 132.30,307.16"/>
    </edge>
    <edge id=":2044433544_7" function="internal">
        <lane id=":2044433544_7_0" index="0" allow="pedestrian delivery bicycle" speed="3.65" length="4.67" shape="139.49,304.21 138.43,305.19 137.56,305.39 136.88,304.82 136.38,303.46"/>
    </edge>
    <edge id=":2044433544_8" function="internal">
        <lane id=":2044433544_8_0" index="0" allow="pedestrian bicycle" speed="4.70" length="4.57" width="2.00" shape="132.75,305.21 134.12,305.37 135.18,305.13 135.93,304.49 136.38,303.46"/>
    </edge>
    <edge id=":2044433544_9" function="internal">
        <lane id=":2044433544_9_0" index="0" allow="pedestrian bicycle" speed="5.56" length="9.42" width="2.00" shape="132.75,305.21 141.93,307.36"/>
    </edge>
    <edge id=":2044433544_10" function="internal">
        <lane id=":2044433544_10_0" index="0" allow="pedestrian bicycle" speed="5.56" length="8.78" width="2.00" shape="132.75,305.21 135.38,306.11 137.10,307.39 137.93,309.03 137.85,311.05"/>
    </edge>
    <edge id=":2044433544_11" function="internal">
        <lane id=":2044433544_11_0" index="0" allow="pedestrian bicycle" speed="2.89" length="2.92" width="2.00" shape="132.75,305.21 133.37,305.87 133.50,306.41 133.14,306.84 132.30,307.16"/>
    </edge>
    <edge id=":2044433544_12" function="internal">
        <lane id=":2044433544_12_0" index="0" allow="pedestrian bicycle" speed="4.83" length="4.53" width="2.00" shape="134.74,310.30 134.81,309.19 134.42,308.30 133.59,307.62 132.30,307.16"/>
    </edge>
    <edge id=":2044433544_13" function="internal">
        <lane id=":2044433544_13_0" index="0" allow="pedestrian delivery bicycle" speed="5.56" length="7.04" shape="134.74,310.30 136.38,303.46"/>
    </edge>
    <edge id=":2044433544_14" function="internal">
        <lane id=":2044433544_14_0" index="0" allow="pedestrian bicycle" speed="5.56" length="8.78" width="2.00" shape="134.74,310.30 135.58,308.47 137.06,307.37 139.18,307.00 141.93,307.36"/>
    </edge>
    <edge id=":2044433544_15" function="internal">
        <lane id=":2044433544_15_0" index="0" allow="pedestrian delivery bicycle" speed="3.65" length="4.67" shape="134.74,310.30 135.80,309.32 136.67,309.12 137.35,309.70 137.85,311.05"/>
    </edge>
    <edge id=":2044433552_0" function="internal">
        <lane id=":2044433552_0_0" index="0" allow="pedestrian delivery bicycle" speed="5.56" length="7.61" shape="137.09,319.04 136.22,318.30 133.98,317.59 131.52,317.01 129.96,316.67"/>
    </edge>
    <edge id=":2044433552_1" function="internal">
        <lane id=":2044433552_1_0" index="0" allow="pedestrian delivery bicycle" speed="5.56" length="8.53" shape="137.09,319.04 136.98,316.73 135.82,315.18 134.65,313.63 134.50,311.30"/>
    </edge>
    <edge id=":2044433552_2" function="internal">
        <lane id=":2044433552_2_0" index="0" allow="pedestrian delivery bicycle" speed="5.39" length="5.82" shape="137.09,319.04 136.40,317.38 136.54,316.28 137.51,315.73 139.31,315.73"/>
    </edge>
    <edge id=":2044433552_3" function="internal">
        <lane id=":2044433552_3_0" index="0" allow="pedestrian delivery bicycle" speed="4.89" length="4.60" shape="137.61,312.05 137.44,313.43 137.67,314.50 138.29,315.27 139.31,315.73"/>
    </edge>
    <edge id=":2044433552_4" function="internal">
        <lane id=":2044433552_4_0" index="0" allow="pedestrian delivery bicycle" speed="5.56" length="10.22" shape="137.61,312.05 136.58,314.66 134.96,316.30 132.75,316.97 129.96,316.67"/>
    </edge>
    <edge id=":2044433552_5" function="internal">
        <lane id=":2044433552_5_0" index="0" allow="pedestrian delivery bicycle" speed="3.65" length="4.67" shape="137.61,312.05 136.55,313.03 135.68,313.23 135.00,312.65 134.50,311.30"/>
    </edge>
    <edge id=":2044433552_6" function="internal">
        <lane id=":2044433552_6_0" index="0" allow="pedestrian delivery bicycle" speed="5.03" length="5.01" shape="130.75,313.57 132.12,313.72 133.20,313.39 133.99,312.58 134.50,311.30"/>
    </edge>
    <edge id=":2044433552_7" function="internal">
        <lane id=":2044433552_7_0" index="0" allow="pedestrian delivery bicycle" speed="5.56" length="8.83" shape="130.75,313.57 139.31,315.73"/>
    </edge>
    <edge id=":2044433552_8" function="internal">
        <lane id=":2044433552_8_0" index="0" allow="pedestrian delivery bicycle" speed="3.65" length="4.67" shape="130.75,313.57 131.72,314.64 131.91,315.51 131.32,316.19 129.96,316.67"/>
    </edge>
    <edge id=":2044433555_0" function="internal">